
 OpenBabel06162213053D

 56 56  0  0  0  0  0  0  0  0999 V2000
    6.7899   -3.7056    8.0516 C   0  0  0  0  0  0  0  0  0  0  0  0
    6.3039   -3.7769    6.8438 C   0  0  0  0  0  0  0  0  0  0  0  0
    5.7374   -3.8600    5.4358 C   0  0  0  0  0  0  0  0  0  0  0  0
    6.2785   -2.7022    4.6314 C   0  0  0  0  0  0  0  0  0  0  0  0
    5.7183   -2.7583    3.2186 C   0  0  0  0  0  0  0  0  0  0  0  0
    6.3121   -1.6715    2.3316 C   0  0  0  0  0  0  0  0  0  0  0  0
    7.8299   -1.7111    2.2726 C   0  0  0  0  0  0  0  0  0  0  0  0
    8.4912   -0.6262    2.8778 C   0  0  0  0  0  0  0  0  0  0  0  0
    9.8865   -0.5744    2.9236 C   0  0  0  0  0  0  0  0  0  0  0  0
   10.4885    0.5116    3.5054 O   0  0  0  0  0  0  0  0  0  0  0  0
   10.6542   -1.5928    2.3584 C   0  0  0  0  0  0  0  0  0  0  0  0
   12.1590   -1.4679    2.3115 C   0  0  0  0  0  0  0  0  0  0  0  0
   12.8789   -2.1376    3.4486 C   0  0  0  0  0  0  0  0  0  0  0  0
   14.0894   -2.7230    3.3999 C   0  0  0  0  0  0  0  0  0  0  0  0
   14.9408   -2.7843    2.1512 C   0  0  0  0  0  0  0  0  0  0  0  0
   14.6485   -3.3273    4.6834 C   0  0  0  0  0  0  0  0  0  0  0  0
   16.0281   -3.9484    4.5316 C   0  0  0  0  0  0  0  0  0  0  0  0
   16.5980   -4.5489    5.7859 C   0  0  0  0  0  0  0  0  0  0  0  0
   17.8011   -5.1395    5.8114 C   0  0  0  0  0  0  0  0  0  0  0  0
   18.6972   -5.2647    4.6017 C   0  0  0  0  0  0  0  0  0  0  0  0
   18.3552   -5.7471    7.0734 C   0  0  0  0  0  0  0  0  0  0  0  0
    9.9831   -2.6831    1.7556 C   0  0  0  0  0  0  0  0  0  0  0  0
   10.7252   -3.6396    1.1046 O   0  0  0  0  0  0  0  0  0  0  0  0
    8.5730   -2.7852    1.7043 C   0  0  0  0  0  0  0  0  0  0  0  0
    7.8895   -3.9947    1.0600 C   0  0  0  0  0  0  0  0  0  0  0  0
    8.4566   -5.1363    1.1329 O   0  0  0  0  0  0  0  0  0  0  0  0
    6.7443   -3.8103    0.5297 O   0  5  0  0  0  0  0  0  0  0  0  0
    7.1970   -3.6493    9.0339 H   0  0  0  0  0  0  0  0  0  0  0  0
    4.6439   -3.8178    5.4932 H   0  0  0  0  0  0  0  0  0  0  0  0
    6.0182   -4.8229    4.9949 H   0  0  0  0  0  0  0  0  0  0  0  0
    7.3739   -2.7742    4.6276 H   0  0  0  0  0  0  0  0  0  0  0  0
    6.0258   -1.7451    5.1037 H   0  0  0  0  0  0  0  0  0  0  0  0
    4.6295   -2.6443    3.2451 H   0  0  0  0  0  0  0  0  0  0  0  0
    5.9085   -3.7571    2.8161 H   0  0  0  0  0  0  0  0  0  0  0  0
    5.9809   -0.7012    2.7226 H   0  0  0  0  0  0  0  0  0  0  0  0
    5.8972   -1.7079    1.3162 H   0  0  0  0  0  0  0  0  0  0  0  0
    7.9132    0.1746    3.3225 H   0  0  0  0  0  0  0  0  0  0  0  0
    9.7878    1.1369    3.7591 H   0  0  0  0  0  0  0  0  0  0  0  0
   12.4481   -0.4128    2.2917 H   0  0  0  0  0  0  0  0  0  0  0  0
   12.4892   -1.8723    1.3473 H   0  0  0  0  0  0  0  0  0  0  0  0
   12.3546   -2.1153    4.4090 H   0  0  0  0  0  0  0  0  0  0  0  0
   14.4769   -2.3162    1.2829 H   0  0  0  0  0  0  0  0  0  0  0  0
   15.1508   -3.8217    1.8746 H   0  0  0  0  0  0  0  0  0  0  0  0
   15.8892   -2.2597    2.3075 H   0  0  0  0  0  0  0  0  0  0  0  0
   13.9488   -4.0906    5.0485 H   0  0  0  0  0  0  0  0  0  0  0  0
   14.6919   -2.5431    5.4458 H   0  0  0  0  0  0  0  0  0  0  0  0
   16.7283   -3.1753    4.1902 H   0  0  0  0  0  0  0  0  0  0  0  0
   15.9765   -4.7418    3.7781 H   0  0  0  0  0  0  0  0  0  0  0  0
   16.0000   -4.4941    6.6934 H   0  0  0  0  0  0  0  0  0  0  0  0
   18.2691   -4.8188    3.6987 H   0  0  0  0  0  0  0  0  0  0  0  0
   18.8873   -6.3177    4.3782 H   0  0  0  0  0  0  0  0  0  0  0  0
   19.6484   -4.7602    4.7859 H   0  0  0  0  0  0  0  0  0  0  0  0
   17.6703   -5.6372    7.9226 H   0  0  0  0  0  0  0  0  0  0  0  0
   19.3023   -5.2657    7.3410 H   0  0  0  0  0  0  0  0  0  0  0  0
   18.5391   -6.8194    6.9297 H   0  0  0  0  0  0  0  0  0  0  0  0
   11.5918   -3.7292    1.5214 H   0  0  0  0  0  0  0  0  0  0  0  0
  1  2  3  0  0  0  0
  1 28  1  0  0  0  0
  2  3  1  0  0  0  0
  3  4  1  0  0  0  0
  3 29  1  0  0  0  0
  3 30  1  0  0  0  0
  4  5  1  0  0  0  0
  4 31  1  0  0  0  0
  4 32  1  0  0  0  0
  5  6  1  0  0  0  0
  5 33  1  0  0  0  0
  5 34  1  0  0  0  0
  6  7  1  0  0  0  0
  6 35  1  0  0  0  0
  6 36  1  0  0  0  0
  7  8  1  0  0  0  0
  7 24  2  0  0  0  0
  8  9  2  0  0  0  0
  8 37  1  0  0  0  0
  9 10  1  0  0  0  0
  9 11  1  0  0  0  0
 10 38  1  0  0  0  0
 11 12  1  0  0  0  0
 11 22  2  0  0  0  0
 12 13  1  0  0  0  0
 12 39  1  0  0  0  0
 12 40  1  0  0  0  0
 13 14  2  0  0  0  0
 13 41  1  0  0  0  0
 14 15  1  0  0  0  0
 14 16  1  0  0  0  0
 15 42  1  0  0  0  0
 15 43  1  0  0  0  0
 15 44  1  0  0  0  0
 16 17  1  0  0  0  0
 16 45  1  0  0  0  0
 16 46  1  0  0  0  0
 17 18  1  0  0  0  0
 17 47  1  0  0  0  0
 17 48  1  0  0  0  0
 18 19  2  0  0  0  0
 18 49  1  0  0  0  0
 19 20  1  0  0  0  0
 19 21  1  0  0  0  0
 20 50  1  0  0  0  0
 20 51  1  0  0  0  0
 20 52  1  0  0  0  0
 21 53  1  0  0  0  0
 21 54  1  0  0  0  0
 21 55  1  0  0  0  0
 22 23  1  0  0  0  0
 22 24  1  0  0  0  0
 23 56  1  0  0  0  0
 24 25  1  0  0  0  0
 25 26  2  0  0  0  0
 25 27  1  0  0  0  0
M  CHG  1  27  -1
M  END
$$$$
