
 OpenBabel06162213033D

 54 54  0  0  0  0  0  0  0  0999 V2000
    0.9244    0.6816    0.2951 C   0  0  0  0  0  0  0  0  0  0  0  0
    2.4007    0.3636    0.1131 C   0  0  0  0  0  0  0  0  0  0  0  0
    2.9259   -0.4674    1.2803 C   0  0  0  0  0  0  0  0  0  0  0  0
    4.4202   -0.7633    1.1481 C   0  0  0  0  0  0  0  0  0  0  0  0
    4.9180   -1.5486    2.3466 C   0  0  0  0  0  0  0  0  0  0  0  0
    5.4030   -0.7886    3.4305 C   0  0  0  0  0  0  0  0  0  0  0  0
    5.7865   -1.3971    4.6212 C   0  0  0  0  0  0  0  0  0  0  0  0
    6.2287   -0.6260    5.6614 O   0  0  0  0  0  0  0  0  0  0  0  0
    5.7362   -2.7806    4.7673 C   0  0  0  0  0  0  0  0  0  0  0  0
    6.1600   -3.4454    6.0586 C   0  0  0  0  0  0  0  0  0  0  0  0
    5.0188   -3.6770    7.0266 C   0  0  0  0  0  0  0  0  0  0  0  0
    4.8780   -4.7057    7.8918 C   0  0  0  0  0  0  0  0  0  0  0  0
    5.8920   -5.8128    8.0190 C   0  0  0  0  0  0  0  0  0  0  0  0
    3.6616   -4.7485    8.8161 C   0  0  0  0  0  0  0  0  0  0  0  0
    3.6223   -5.9433    9.7921 C   0  0  0  0  0  0  0  0  0  0  0  0
    2.4309   -5.9814   10.7100 C   0  0  0  0  0  0  0  0  0  0  0  0
    2.2213   -6.9477   11.6288 C   0  0  0  0  0  0  0  0  0  0  0  0
    3.1477   -8.1152   11.8461 C   0  0  0  0  0  0  0  0  0  0  0  0
    1.0046   -6.9380   12.5130 C   0  0  0  0  0  0  0  0  0  0  0  0
    5.2857   -3.5419    3.6729 C   0  0  0  0  0  0  0  0  0  0  0  0
    5.3513   -4.9055    3.8182 O   0  0  0  0  0  0  0  0  0  0  0  0
    4.8337   -2.9617    2.4651 C   0  0  0  0  0  0  0  0  0  0  0  0
    4.2240   -3.8332    1.3778 C   0  0  0  0  0  0  0  0  0  0  0  0
    3.4475   -4.7714    1.7522 O   0  0  0  0  0  0  0  0  0  0  0  0
    4.4831   -3.5412    0.1657 O   0  5  0  0  0  0  0  0  0  0  0  0
    0.5561    1.2772   -0.5454 H   0  0  0  0  0  0  0  0  0  0  0  0
    0.7592    1.2521    1.2140 H   0  0  0  0  0  0  0  0  0  0  0  0
    0.3316   -0.2371    0.3503 H   0  0  0  0  0  0  0  0  0  0  0  0
    2.9612    1.3025    0.0432 H   0  0  0  0  0  0  0  0  0  0  0  0
    2.5452   -0.1784   -0.8289 H   0  0  0  0  0  0  0  0  0  0  0  0
    2.3597   -1.4060    1.3441 H   0  0  0  0  0  0  0  0  0  0  0  0
    2.7433    0.0761    2.2164 H   0  0  0  0  0  0  0  0  0  0  0  0
    4.9692    0.1878    1.0943 H   0  0  0  0  0  0  0  0  0  0  0  0
    4.6557   -1.2528    0.2009 H   0  0  0  0  0  0  0  0  0  0  0  0
    5.4470    0.2923    3.3333 H   0  0  0  0  0  0  0  0  0  0  0  0
    6.2848    0.2892    5.3453 H   0  0  0  0  0  0  0  0  0  0  0  0
    6.9090   -2.8249    6.5601 H   0  0  0  0  0  0  0  0  0  0  0  0
    6.6754   -4.3749    5.8068 H   0  0  0  0  0  0  0  0  0  0  0  0
    4.2475   -2.9040    7.0128 H   0  0  0  0  0  0  0  0  0  0  0  0
    6.7450   -5.7134    7.3485 H   0  0  0  0  0  0  0  0  0  0  0  0
    5.4319   -6.7827    7.8028 H   0  0  0  0  0  0  0  0  0  0  0  0
    6.3072   -5.8337    9.0325 H   0  0  0  0  0  0  0  0  0  0  0  0
    2.7502   -4.7608    8.2038 H   0  0  0  0  0  0  0  0  0  0  0  0
    3.6392   -3.8195    9.4051 H   0  0  0  0  0  0  0  0  0  0  0  0
    4.5253   -5.9156   10.4119 H   0  0  0  0  0  0  0  0  0  0  0  0
    3.6262   -6.8706    9.2045 H   0  0  0  0  0  0  0  0  0  0  0  0
    1.7129   -5.1754   10.6045 H   0  0  0  0  0  0  0  0  0  0  0  0
    4.0177   -8.1014   11.1911 H   0  0  0  0  0  0  0  0  0  0  0  0
    2.6184   -9.0578   11.6681 H   0  0  0  0  0  0  0  0  0  0  0  0
    3.5192   -8.1131   12.8760 H   0  0  0  0  0  0  0  0  0  0  0  0
    0.3531   -6.0735   12.3160 H   0  0  0  0  0  0  0  0  0  0  0  0
    1.3114   -6.8941   13.5669 H   0  0  0  0  0  0  0  0  0  0  0  0
    0.4173   -7.8477   12.3596 H   0  0  0  0  0  0  0  0  0  0  0  0
    4.5452   -5.1437    4.3091 H   0  0  0  0  0  0  0  0  0  0  0  0
  1  2  1  0  0  0  0
  1 26  1  0  0  0  0
  1 27  1  0  0  0  0
  1 28  1  0  0  0  0
  2  3  1  0  0  0  0
  2 29  1  0  0  0  0
  2 30  1  0  0  0  0
  3  4  1  0  0  0  0
  3 31  1  0  0  0  0
  3 32  1  0  0  0  0
  4  5  1  0  0  0  0
  4 33  1  0  0  0  0
  4 34  1  0  0  0  0
  5  6  1  0  0  0  0
  5 22  2  0  0  0  0
  6  7  2  0  0  0  0
  6 35  1  0  0  0  0
  7  8  1  0  0  0  0
  7  9  1  0  0  0  0
  8 36  1  0  0  0  0
  9 10  1  0  0  0  0
  9 20  2  0  0  0  0
 10 11  1  0  0  0  0
 10 37  1  0  0  0  0
 10 38  1  0  0  0  0
 11 12  2  0  0  0  0
 11 39  1  0  0  0  0
 12 13  1  0  0  0  0
 12 14  1  0  0  0  0
 13 40  1  0  0  0  0
 13 41  1  0  0  0  0
 13 42  1  0  0  0  0
 14 15  1  0  0  0  0
 14 43  1  0  0  0  0
 14 44  1  0  0  0  0
 15 16  1  0  0  0  0
 15 45  1  0  0  0  0
 15 46  1  0  0  0  0
 16 17  2  0  0  0  0
 16 47  1  0  0  0  0
 17 18  1  0  0  0  0
 17 19  1  0  0  0  0
 18 48  1  0  0  0  0
 18 49  1  0  0  0  0
 18 50  1  0  0  0  0
 19 51  1  0  0  0  0
 19 52  1  0  0  0  0
 19 53  1  0  0  0  0
 20 21  1  0  0  0  0
 20 22  1  0  0  0  0
 21 54  1  0  0  0  0
 22 23  1  0  0  0  0
 23 24  2  0  0  0  0
 23 25  1  0  0  0  0
M  CHG  1  25  -1
M  END
$$$$
