
 OpenBabel06162213043D

 60 60  0  0  0  0  0  0  0  0999 V2000
    1.0790    1.1183    0.5748 C   0  0  0  0  0  0  0  0  0  0  0  0
    2.5606    0.8232    0.4116 C   0  0  0  0  0  0  0  0  0  0  0  0
    3.1082    0.0798    1.6262 C   0  0  0  0  0  0  0  0  0  0  0  0
    4.5962   -0.2264    1.4674 C   0  0  0  0  0  0  0  0  0  0  0  0
    5.1180   -0.9747    2.6903 C   0  0  0  0  0  0  0  0  0  0  0  0
    6.6132   -1.2632    2.5758 C   0  0  0  0  0  0  0  0  0  0  0  0
    7.1076   -1.9728    3.8212 C   0  0  0  0  0  0  0  0  0  0  0  0
    7.5700   -1.1420    4.8615 C   0  0  0  0  0  0  0  0  0  0  0  0
    7.9473   -1.6715    6.0899 C   0  0  0  0  0  0  0  0  0  0  0  0
    8.3657   -0.8314    7.0860 O   0  0  0  0  0  0  0  0  0  0  0  0
    7.9153   -3.0444    6.3158 C   0  0  0  0  0  0  0  0  0  0  0  0
    8.3365   -3.6211    7.6467 C   0  0  0  0  0  0  0  0  0  0  0  0
    7.1972   -3.8263    8.6204 C   0  0  0  0  0  0  0  0  0  0  0  0
    7.3151   -4.3891    9.8434 C   0  0  0  0  0  0  0  0  0  0  0  0
    8.6380   -4.8759   10.3800 C   0  0  0  0  0  0  0  0  0  0  0  0
    6.0782   -4.5384   10.7236 C   0  0  0  0  0  0  0  0  0  0  0  0
    6.3246   -5.1841   12.0936 C   0  0  0  0  0  0  0  0  0  0  0  0
    5.1120   -5.3279   12.9652 C   0  0  0  0  0  0  0  0  0  0  0  0
    5.1320   -5.8694   14.2033 C   0  0  0  0  0  0  0  0  0  0  0  0
    6.3780   -6.3885   14.8681 C   0  0  0  0  0  0  0  0  0  0  0  0
    3.8806   -5.9972   15.0243 C   0  0  0  0  0  0  0  0  0  0  0  0
    7.4851   -3.8785    5.2642 C   0  0  0  0  0  0  0  0  0  0  0  0
    7.5813   -5.2305    5.4799 O   0  0  0  0  0  0  0  0  0  0  0  0
    7.0358   -3.3786    4.0206 C   0  0  0  0  0  0  0  0  0  0  0  0
    6.4392   -4.3202    2.9789 C   0  0  0  0  0  0  0  0  0  0  0  0
    5.7178   -5.2817    3.4013 O   0  0  0  0  0  0  0  0  0  0  0  0
    6.6488   -4.0592    1.7506 O   0  5  0  0  0  0  0  0  0  0  0  0
    0.6992    1.6514   -0.3018 H   0  0  0  0  0  0  0  0  0  0  0  0
    0.8989    1.7407    1.4575 H   0  0  0  0  0  0  0  0  0  0  0  0
    0.5060    0.1921    0.6859 H   0  0  0  0  0  0  0  0  0  0  0  0
    3.1050    1.7645    0.2741 H   0  0  0  0  0  0  0  0  0  0  0  0
    2.7133    0.2232   -0.4929 H   0  0  0  0  0  0  0  0  0  0  0  0
    2.5546   -0.8570    1.7664 H   0  0  0  0  0  0  0  0  0  0  0  0
    2.9520    0.6841    2.5283 H   0  0  0  0  0  0  0  0  0  0  0  0
    5.1545    0.7088    1.3373 H   0  0  0  0  0  0  0  0  0  0  0  0
    4.7592   -0.8313    0.5676 H   0  0  0  0  0  0  0  0  0  0  0  0
    4.5606   -1.9106    2.8165 H   0  0  0  0  0  0  0  0  0  0  0  0
    4.9288   -0.3724    3.5890 H   0  0  0  0  0  0  0  0  0  0  0  0
    7.1512   -0.3106    2.4657 H   0  0  0  0  0  0  0  0  0  0  0  0
    6.8590   -1.8034    1.6601 H   0  0  0  0  0  0  0  0  0  0  0  0
    7.5994   -0.0686    4.6992 H   0  0  0  0  0  0  0  0  0  0  0  0
    8.3811    0.0695    6.7268 H   0  0  0  0  0  0  0  0  0  0  0  0
    9.0878   -2.9656    8.1027 H   0  0  0  0  0  0  0  0  0  0  0  0
    8.8439   -4.5773    7.4710 H   0  0  0  0  0  0  0  0  0  0  0  0
    6.2167   -3.4832    8.2909 H   0  0  0  0  0  0  0  0  0  0  0  0
    9.4682   -4.7358    9.6831 H   0  0  0  0  0  0  0  0  0  0  0  0
    8.5932   -5.9465   10.6024 H   0  0  0  0  0  0  0  0  0  0  0  0
    8.9035   -4.3324   11.2924 H   0  0  0  0  0  0  0  0  0  0  0  0
    5.3376   -5.1443   10.1849 H   0  0  0  0  0  0  0  0  0  0  0  0
    5.6344   -3.5457   10.8761 H   0  0  0  0  0  0  0  0  0  0  0  0
    7.0635   -4.5687   12.6410 H   0  0  0  0  0  0  0  0  0  0  0  0
    6.7590   -6.1799   11.9432 H   0  0  0  0  0  0  0  0  0  0  0  0
    4.1695   -4.9762   12.5501 H   0  0  0  0  0  0  0  0  0  0  0  0
    7.2769   -6.2886   14.2551 H   0  0  0  0  0  0  0  0  0  0  0  0
    6.2632   -7.4523   15.1007 H   0  0  0  0  0  0  0  0  0  0  0  0
    6.5615   -5.8433   15.7999 H   0  0  0  0  0  0  0  0  0  0  0  0
    3.0010   -5.6106   14.4985 H   0  0  0  0  0  0  0  0  0  0  0  0
    3.9861   -5.4393   15.9607 H   0  0  0  0  0  0  0  0  0  0  0  0
    3.6938   -7.0489   15.2647 H   0  0  0  0  0  0  0  0  0  0  0  0
    6.8612   -5.4481    6.0956 H   0  0  0  0  0  0  0  0  0  0  0  0
  1  2  1  0  0  0  0
  1 28  1  0  0  0  0
  1 29  1  0  0  0  0
  1 30  1  0  0  0  0
  2  3  1  0  0  0  0
  2 31  1  0  0  0  0
  2 32  1  0  0  0  0
  3  4  1  0  0  0  0
  3 33  1  0  0  0  0
  3 34  1  0  0  0  0
  4  5  1  0  0  0  0
  4 35  1  0  0  0  0
  4 36  1  0  0  0  0
  5  6  1  0  0  0  0
  5 37  1  0  0  0  0
  5 38  1  0  0  0  0
  6  7  1  0  0  0  0
  6 39  1  0  0  0  0
  6 40  1  0  0  0  0
  7  8  1  0  0  0  0
  7 24  2  0  0  0  0
  8  9  2  0  0  0  0
  8 41  1  0  0  0  0
  9 10  1  0  0  0  0
  9 11  1  0  0  0  0
 10 42  1  0  0  0  0
 11 12  1  0  0  0  0
 11 22  2  0  0  0  0
 12 13  1  0  0  0  0
 12 43  1  0  0  0  0
 12 44  1  0  0  0  0
 13 14  2  0  0  0  0
 13 45  1  0  0  0  0
 14 15  1  0  0  0  0
 14 16  1  0  0  0  0
 15 46  1  0  0  0  0
 15 47  1  0  0  0  0
 15 48  1  0  0  0  0
 16 17  1  0  0  0  0
 16 49  1  0  0  0  0
 16 50  1  0  0  0  0
 17 18  1  0  0  0  0
 17 51  1  0  0  0  0
 17 52  1  0  0  0  0
 18 19  2  0  0  0  0
 18 53  1  0  0  0  0
 19 20  1  0  0  0  0
 19 21  1  0  0  0  0
 20 54  1  0  0  0  0
 20 55  1  0  0  0  0
 20 56  1  0  0  0  0
 21 57  1  0  0  0  0
 21 58  1  0  0  0  0
 21 59  1  0  0  0  0
 22 23  1  0  0  0  0
 22 24  1  0  0  0  0
 23 60  1  0  0  0  0
 24 25  1  0  0  0  0
 25 26  2  0  0  0  0
 25 27  1  0  0  0  0
M  CHG  1  27  -1
M  END
$$$$
