
 OpenBabel06162213043D

 60 60  0  0  1  0  0  0  0  0999 V2000
    5.0413    5.4369    4.8750 C   0  0  0  0  0  0  0  0  0  0  0  0
    4.4820    4.2306    4.1343 C   0  0  0  0  0  0  0  0  0  0  0  0
    4.8861    2.8814    4.7596 C   0  0  3  0  0  0  0  0  0  0  0  0
    4.3414    2.7271    6.1839 C   0  0  0  0  0  0  0  0  0  0  0  0
    4.3940    1.6902    3.9075 C   0  0  0  0  0  0  0  0  0  0  0  0
    5.0190    1.5789    2.5101 C   0  0  0  0  0  0  0  0  0  0  0  0
    6.5322    1.5470    2.4829 C   0  0  0  0  0  0  0  0  0  0  0  0
    7.1904    2.6798    1.9648 C   0  0  0  0  0  0  0  0  0  0  0  0
    8.5808    2.7529    1.9241 C   0  0  0  0  0  0  0  0  0  0  0  0
    9.1856    3.8788    1.4324 O   0  0  0  0  0  0  0  0  0  0  0  0
    9.3679    1.6876    2.3561 C   0  0  0  0  0  0  0  0  0  0  0  0
   10.8719    1.7456    2.2334 C   0  0  0  0  0  0  0  0  0  0  0  0
   11.5695    2.2498    3.4750 C   0  0  0  0  0  0  0  0  0  0  0  0
   12.7774    1.8659    3.9432 C   0  0  0  0  0  0  0  0  0  0  0  0
   13.6338    0.8336    3.2550 C   0  0  0  0  0  0  0  0  0  0  0  0
   13.3301    2.5284    5.2034 C   0  0  0  0  0  0  0  0  0  0  0  0
   14.7226    2.0392    5.6324 C   0  0  0  0  0  0  0  0  0  0  0  0
   15.2755    2.6927    6.8714 C   0  0  0  0  0  0  0  0  0  0  0  0
   16.4773    2.3807    7.3991 C   0  0  0  0  0  0  0  0  0  0  0  0
   17.4127    1.3528    6.8143 C   0  0  0  0  0  0  0  0  0  0  0  0
   16.9891    3.0526    8.6417 C   0  0  0  0  0  0  0  0  0  0  0  0
    8.7128    0.5481    2.8667 C   0  0  0  0  0  0  0  0  0  0  0  0
    9.4901   -0.5300    3.2096 O   0  0  0  0  0  0  0  0  0  0  0  0
    7.3065    0.4568    2.9623 C   0  0  0  0  0  0  0  0  0  0  0  0
    6.6556   -0.7592    3.5969 C   0  0  0  0  0  0  0  0  0  0  0  0
    7.1197   -1.1564    4.7146 O   0  0  0  0  0  0  0  0  0  0  0  0
    5.6458   -1.2592    3.0032 O   0  5  0  0  0  0  0  0  0  0  0  0
    4.8080    6.3542    4.3248 H   0  0  0  0  0  0  0  0  0  0  0  0
    6.1296    5.3679    4.9705 H   0  0  0  0  0  0  0  0  0  0  0  0
    4.6078    5.5334    5.8740 H   0  0  0  0  0  0  0  0  0  0  0  0
    4.8447    4.2889    3.1033 H   0  0  0  0  0  0  0  0  0  0  0  0
    3.3895    4.3103    4.0849 H   0  0  0  0  0  0  0  0  0  0  0  0
    5.9798    2.8397    4.8296 H   0  0  0  0  0  0  0  0  0  0  0  0
    3.2484    2.7947    6.2009 H   0  0  0  0  0  0  0  0  0  0  0  0
    4.7442    3.4933    6.8529 H   0  0  0  0  0  0  0  0  0  0  0  0
    4.6271    1.7560    6.6031 H   0  0  0  0  0  0  0  0  0  0  0  0
    3.3039    1.7573    3.7889 H   0  0  0  0  0  0  0  0  0  0  0  0
    4.5754    0.7616    4.4594 H   0  0  0  0  0  0  0  0  0  0  0  0
    4.6591    2.4175    1.8988 H   0  0  0  0  0  0  0  0  0  0  0  0
    4.6246    0.7001    1.9876 H   0  0  0  0  0  0  0  0  0  0  0  0
    6.5969    3.5123    1.5973 H   0  0  0  0  0  0  0  0  0  0  0  0
    8.4889    4.4955    1.1589 H   0  0  0  0  0  0  0  0  0  0  0  0
   11.1554    2.4022    1.3983 H   0  0  0  0  0  0  0  0  0  0  0  0
   11.2219    0.7504    1.9434 H   0  0  0  0  0  0  0  0  0  0  0  0
   11.0240    3.0237    4.0169 H   0  0  0  0  0  0  0  0  0  0  0  0
   13.1918    0.4267    2.3445 H   0  0  0  0  0  0  0  0  0  0  0  0
   13.8212   -0.0140    3.9216 H   0  0  0  0  0  0  0  0  0  0  0  0
   14.5913    1.2721    2.9561 H   0  0  0  0  0  0  0  0  0  0  0  0
   12.6261    2.3620    6.0295 H   0  0  0  0  0  0  0  0  0  0  0  0
   13.3786    3.6131    5.0348 H   0  0  0  0  0  0  0  0  0  0  0  0
   15.4284    2.2302    4.8148 H   0  0  0  0  0  0  0  0  0  0  0  0
   14.6747    0.9577    5.8108 H   0  0  0  0  0  0  0  0  0  0  0  0
   14.6495    3.4382    7.3543 H   0  0  0  0  0  0  0  0  0  0  0  0
   17.0238    0.8754    5.9108 H   0  0  0  0  0  0  0  0  0  0  0  0
   17.6051    0.5583    7.5423 H   0  0  0  0  0  0  0  0  0  0  0  0
   18.3661    1.8198    6.5474 H   0  0  0  0  0  0  0  0  0  0  0  0
   16.2838    3.7934    9.0342 H   0  0  0  0  0  0  0  0  0  0  0  0
   17.9303    3.5696    8.4307 H   0  0  0  0  0  0  0  0  0  0  0  0
   17.1696    2.3111    9.4271 H   0  0  0  0  0  0  0  0  0  0  0  0
   10.1180   -0.2104    3.8778 H   0  0  0  0  0  0  0  0  0  0  0  0
  1  2  1  0  0  0  0
  1 28  1  0  0  0  0
  1 29  1  0  0  0  0
  1 30  1  0  0  0  0
  2  3  1  0  0  0  0
  2 31  1  0  0  0  0
  2 32  1  0  0  0  0
  3  4  1  0  0  0  0
  3  5  1  0  0  0  0
  3 33  1  0  0  0  0
  4 34  1  0  0  0  0
  4 35  1  0  0  0  0
  4 36  1  0  0  0  0
  5  6  1  0  0  0  0
  5 37  1  0  0  0  0
  5 38  1  0  0  0  0
  6  7  1  0  0  0  0
  6 39  1  0  0  0  0
  6 40  1  0  0  0  0
  7  8  1  0  0  0  0
  7 24  2  0  0  0  0
  8  9  2  0  0  0  0
  8 41  1  0  0  0  0
  9 10  1  0  0  0  0
  9 11  1  0  0  0  0
 10 42  1  0  0  0  0
 11 12  1  0  0  0  0
 11 22  2  0  0  0  0
 12 13  1  0  0  0  0
 12 43  1  0  0  0  0
 12 44  1  0  0  0  0
 13 14  2  0  0  0  0
 13 45  1  0  0  0  0
 14 15  1  0  0  0  0
 14 16  1  0  0  0  0
 15 46  1  0  0  0  0
 15 47  1  0  0  0  0
 15 48  1  0  0  0  0
 16 17  1  0  0  0  0
 16 49  1  0  0  0  0
 16 50  1  0  0  0  0
 17 18  1  0  0  0  0
 17 51  1  0  0  0  0
 17 52  1  0  0  0  0
 18 19  2  0  0  0  0
 18 53  1  0  0  0  0
 19 20  1  0  0  0  0
 19 21  1  0  0  0  0
 20 54  1  0  0  0  0
 20 55  1  0  0  0  0
 20 56  1  0  0  0  0
 21 57  1  0  0  0  0
 21 58  1  0  0  0  0
 21 59  1  0  0  0  0
 22 23  1  0  0  0  0
 22 24  1  0  0  0  0
 23 60  1  0  0  0  0
 24 25  1  0  0  0  0
 25 26  2  0  0  0  0
 25 27  1  0  0  0  0
M  CHG  1  27  -1
M  END
$$$$
