
 OpenBabel06162212583D

 37 37  0  0  0  0  0  0  0  0999 V2000
    0.7799   -1.3864    4.7103 C   0  0  0  0  0  0  0  0  0  0  0  0
    2.2982   -1.3805    4.7235 C   0  0  0  0  0  0  0  0  0  0  0  0
    2.8660   -1.7220    3.3496 C   0  0  0  0  0  0  0  0  0  0  0  0
    4.3896   -1.7332    3.3981 C   0  0  0  0  0  0  0  0  0  0  0  0
    5.0007   -2.1027    2.0492 C   0  0  0  0  0  0  0  0  0  0  0  0
    6.5290   -2.0966    2.0873 C   0  0  0  0  0  0  0  0  0  0  0  0
    7.1016   -3.1636    3.0282 C   0  0  0  0  0  0  0  0  0  0  0  0
    8.6148   -3.1339    3.0461 C   0  0  0  0  0  0  0  0  0  0  0  0
    9.2218   -2.2818    3.9917 C   0  0  0  0  0  0  0  0  0  0  0  0
   10.6004   -2.1846    4.0715 C   0  0  0  0  0  0  0  0  0  0  0  0
   11.2006   -1.3612    4.9821 O   0  0  0  0  0  0  0  0  0  0  0  0
   11.4000   -2.9052    3.2037 C   0  0  0  0  0  0  0  0  0  0  0  0
   10.8106   -3.7403    2.2460 C   0  0  0  0  0  0  0  0  0  0  0  0
   11.6474   -4.3518    1.3510 O   0  0  0  0  0  0  0  0  0  0  0  0
    9.4145   -3.9010    2.1533 C   0  0  0  0  0  0  0  0  0  0  0  0
    8.8028   -4.8821    1.1555 C   0  0  0  0  0  0  0  0  0  0  0  0
    9.3794   -6.0053    0.9890 O   0  0  0  0  0  0  0  0  0  0  0  0
    7.7143   -4.5434    0.5880 O   0  5  0  0  0  0  0  0  0  0  0  0
    0.3919   -1.1352    5.7021 H   0  0  0  0  0  0  0  0  0  0  0  0
    0.3974   -2.3741    4.4336 H   0  0  0  0  0  0  0  0  0  0  0  0
    0.3935   -0.6535    3.9951 H   0  0  0  0  0  0  0  0  0  0  0  0
    2.6537   -2.1047    5.4661 H   0  0  0  0  0  0  0  0  0  0  0  0
    2.6544   -0.3927    5.0407 H   0  0  0  0  0  0  0  0  0  0  0  0
    2.5235   -0.9903    2.6094 H   0  0  0  0  0  0  0  0  0  0  0  0
    2.5021   -2.7061    3.0304 H   0  0  0  0  0  0  0  0  0  0  0  0
    4.7020   -2.4495    4.1645 H   0  0  0  0  0  0  0  0  0  0  0  0
    4.7560   -0.7473    3.7093 H   0  0  0  0  0  0  0  0  0  0  0  0
    4.6670   -1.3838    1.2914 H   0  0  0  0  0  0  0  0  0  0  0  0
    4.6424   -3.0890    1.7315 H   0  0  0  0  0  0  0  0  0  0  0  0
    6.8823   -1.1025    2.3882 H   0  0  0  0  0  0  0  0  0  0  0  0
    6.9009   -2.2448    1.0672 H   0  0  0  0  0  0  0  0  0  0  0  0
    6.7193   -4.1643    2.7979 H   0  0  0  0  0  0  0  0  0  0  0  0
    6.7604   -2.9752    4.0544 H   0  0  0  0  0  0  0  0  0  0  0  0
    8.5883   -1.6996    4.6565 H   0  0  0  0  0  0  0  0  0  0  0  0
   10.4951   -0.9191    5.4853 H   0  0  0  0  0  0  0  0  0  0  0  0
   12.4761   -2.7925    3.2577 H   0  0  0  0  0  0  0  0  0  0  0  0
   12.5206   -4.4420    1.7552 H   0  0  0  0  0  0  0  0  0  0  0  0
  1  2  1  0  0  0  0
  1 19  1  0  0  0  0
  1 20  1  0  0  0  0
  1 21  1  0  0  0  0
  2  3  1  0  0  0  0
  2 22  1  0  0  0  0
  2 23  1  0  0  0  0
  3  4  1  0  0  0  0
  3 24  1  0  0  0  0
  3 25  1  0  0  0  0
  4  5  1  0  0  0  0
  4 26  1  0  0  0  0
  4 27  1  0  0  0  0
  5  6  1  0  0  0  0
  5 28  1  0  0  0  0
  5 29  1  0  0  0  0
  6  7  1  0  0  0  0
  6 30  1  0  0  0  0
  6 31  1  0  0  0  0
  7  8  1  0  0  0  0
  7 32  1  0  0  0  0
  7 33  1  0  0  0  0
  8  9  1  0  0  0  0
  8 15  2  0  0  0  0
  9 10  2  0  0  0  0
  9 34  1  0  0  0  0
 10 11  1  0  0  0  0
 10 12  1  0  0  0  0
 11 35  1  0  0  0  0
 12 13  2  0  0  0  0
 12 36  1  0  0  0  0
 13 14  1  0  0  0  0
 13 15  1  0  0  0  0
 14 37  1  0  0  0  0
 15 16  1  0  0  0  0
 16 17  2  0  0  0  0
 16 18  1  0  0  0  0
M  CHG  1  18  -1
M  END
$$$$
