
 OpenBabel06162213003D

 34 34  0  0  0  0  0  0  0  0999 V2000
    1.0350    0.5158    0.3356 C   0  0  0  0  0  0  0  0  0  0  0  0
    2.5537    0.4498    0.3122 C   0  0  0  0  0  0  0  0  0  0  0  0
    3.0789   -0.5302    1.3596 C   0  0  0  0  0  0  0  0  0  0  0  0
    4.6066   -0.6072    1.3458 C   0  0  0  0  0  0  0  0  0  0  0  0
    5.1056   -1.6050    2.3935 C   0  0  0  0  0  0  0  0  0  0  0  0
    6.6331   -1.6724    2.4368 C   0  0  0  0  0  0  0  0  0  0  0  0
    7.1051   -2.6526    3.4931 C   0  0  0  0  0  0  0  0  0  0  0  0
    7.3329   -2.1267    4.7835 C   0  0  0  0  0  0  0  0  0  0  0  0
    7.6879   -2.9609    5.8345 C   0  0  0  0  0  0  0  0  0  0  0  0
    7.8985   -2.4720    7.0901 O   0  0  0  0  0  0  0  0  0  0  0  0
    7.8447   -4.3183    5.6276 C   0  0  0  0  0  0  0  0  0  0  0  0
    7.6492   -4.8497    4.3510 C   0  0  0  0  0  0  0  0  0  0  0  0
    7.9145   -6.1852    4.2074 O   0  0  0  0  0  0  0  0  0  0  0  0
    7.2502   -4.0516    3.2634 C   0  0  0  0  0  0  0  0  0  0  0  0
    6.9360   -4.6900    1.9223 C   0  0  0  0  0  0  0  0  0  0  0  0
    6.2344   -5.7519    1.9241 O   0  0  0  0  0  0  0  0  0  0  0  0
    7.3542   -4.0935    0.8733 O   0  5  0  0  0  0  0  0  0  0  0  0
    0.6732    1.2222   -0.4172 H   0  0  0  0  0  0  0  0  0  0  0  0
    0.6725    0.8467    1.3144 H   0  0  0  0  0  0  0  0  0  0  0  0
    0.5967   -0.4645    0.1209 H   0  0  0  0  0  0  0  0  0  0  0  0
    2.9613    1.4502    0.4986 H   0  0  0  0  0  0  0  0  0  0  0  0
    2.8864    0.1442   -0.6865 H   0  0  0  0  0  0  0  0  0  0  0  0
    2.6575   -1.5259    1.1700 H   0  0  0  0  0  0  0  0  0  0  0  0
    2.7383   -0.2169    2.3531 H   0  0  0  0  0  0  0  0  0  0  0  0
    5.0280    0.3847    1.5495 H   0  0  0  0  0  0  0  0  0  0  0  0
    4.9559   -0.9147    0.3514 H   0  0  0  0  0  0  0  0  0  0  0  0
    4.6912   -2.5968    2.1794 H   0  0  0  0  0  0  0  0  0  0  0  0
    4.7244   -1.3100    3.3804 H   0  0  0  0  0  0  0  0  0  0  0  0
    7.0268   -0.6758    2.6770 H   0  0  0  0  0  0  0  0  0  0  0  0
    7.0535   -1.8894    1.4509 H   0  0  0  0  0  0  0  0  0  0  0  0
    7.2083   -1.0596    4.9489 H   0  0  0  0  0  0  0  0  0  0  0  0
    7.7853   -1.5093    7.0506 H   0  0  0  0  0  0  0  0  0  0  0  0
    8.1390   -4.9588    6.4515 H   0  0  0  0  0  0  0  0  0  0  0  0
    7.3711   -6.6451    4.8662 H   0  0  0  0  0  0  0  0  0  0  0  0
  1  2  1  0  0  0  0
  1 18  1  0  0  0  0
  1 19  1  0  0  0  0
  1 20  1  0  0  0  0
  2  3  1  0  0  0  0
  2 21  1  0  0  0  0
  2 22  1  0  0  0  0
  3  4  1  0  0  0  0
  3 23  1  0  0  0  0
  3 24  1  0  0  0  0
  4  5  1  0  0  0  0
  4 25  1  0  0  0  0
  4 26  1  0  0  0  0
  5  6  1  0  0  0  0
  5 27  1  0  0  0  0
  5 28  1  0  0  0  0
  6  7  1  0  0  0  0
  6 29  1  0  0  0  0
  6 30  1  0  0  0  0
  7  8  1  0  0  0  0
  7 14  2  0  0  0  0
  8  9  2  0  0  0  0
  8 31  1  0  0  0  0
  9 10  1  0  0  0  0
  9 11  1  0  0  0  0
 10 32  1  0  0  0  0
 11 12  2  0  0  0  0
 11 33  1  0  0  0  0
 12 13  1  0  0  0  0
 12 14  1  0  0  0  0
 13 34  1  0  0  0  0
 14 15  1  0  0  0  0
 15 16  2  0  0  0  0
 15 17  1  0  0  0  0
M  CHG  1  17  -1
M  END
$$$$
