
 OpenBabel06162213103D

 53 55  0  0  1  0  0  0  0  0999 V2000
    4.3730   -3.4104   -5.3137 C   0  0  0  0  0  0  0  0  0  0  0  0
    5.0705   -2.4967   -4.6238 C   0  0  0  0  0  0  0  0  0  0  0  0
    5.6712   -2.6975   -3.2533 C   0  0  0  0  0  0  0  0  0  0  0  0
    5.1542   -1.6433   -2.2608 C   0  0  0  0  0  0  0  0  0  0  0  0
    5.6660   -1.8056   -0.8157 C   0  0  0  0  0  0  0  0  0  0  0  0
    7.1629   -1.6245   -0.6010 C   0  0  0  0  0  0  0  0  0  0  0  0
    7.9022   -2.8198   -0.5087 C   0  0  0  0  0  0  0  0  0  0  0  0
    9.2859   -2.7828   -0.3409 C   0  0  0  0  0  0  0  0  0  0  0  0
    9.8531   -4.0622   -0.2217 O   0  0  0  0  0  0  0  0  0  0  0  0
   11.2545   -3.9212    0.1294 C   0  0  0  0  0  0  0  0  0  0  0  0
   11.9728   -5.2704    0.2164 C   0  0  0  0  0  0  0  0  0  0  0  0
   11.1651   -3.4462    1.6334 C   0  0  0  0  0  0  0  0  0  0  0  0
   11.7391   -3.0557   -1.0999 C   0  0  2  0  0  0  0  0  0  0  0  0
   13.0182   -3.2829   -1.8856 C   0  0  0  0  0  0  0  0  0  0  0  0
   14.2633   -2.7713   -1.2198 C   0  0  0  0  0  0  0  0  0  0  0  0
   14.0159   -1.7819   -0.1017 C   0  0  0  0  0  0  0  0  0  0  0  0
   15.3189   -1.4778    0.6075 C   0  0  0  0  0  0  0  0  0  0  0  0
   12.7723   -1.2666    0.1681 C   0  0  0  0  0  0  0  0  0  0  0  0
   11.5550   -1.6013   -0.7038 C   0  0  3  0  0  0  0  0  0  0  0  0
   10.0379   -1.5684   -0.3548 C   0  0  0  0  0  0  0  0  0  0  0  0
    9.2854   -0.3817   -0.3784 C   0  0  0  0  0  0  0  0  0  0  0  0
    9.9983    0.7950   -0.3309 O   0  0  0  0  0  0  0  0  0  0  0  0
    7.8471   -0.3843   -0.4893 C   0  0  0  0  0  0  0  0  0  0  0  0
    7.1176    0.9612   -0.4893 C   0  0  0  0  0  0  0  0  0  0  0  0
    7.8644    1.9961   -0.5950 O   0  0  0  0  0  0  0  0  0  0  0  0
    5.8568    0.9959   -0.3655 O   0  5  0  0  0  0  0  0  0  0  0  0
    3.9743   -3.1833   -6.2899 H   0  0  0  0  0  0  0  0  0  0  0  0
    4.1846   -4.4049   -4.9070 H   0  0  0  0  0  0  0  0  0  0  0  0
    5.2373   -1.5206   -5.0766 H   0  0  0  0  0  0  0  0  0  0  0  0
    6.7598   -2.6234   -3.3518 H   0  0  0  0  0  0  0  0  0  0  0  0
    5.4462   -3.7061   -2.8836 H   0  0  0  0  0  0  0  0  0  0  0  0
    4.0577   -1.7202   -2.2306 H   0  0  0  0  0  0  0  0  0  0  0  0
    5.3895   -0.6407   -2.6339 H   0  0  0  0  0  0  0  0  0  0  0  0
    5.3788   -2.8151   -0.4792 H   0  0  0  0  0  0  0  0  0  0  0  0
    5.1027   -1.1579   -0.1367 H   0  0  0  0  0  0  0  0  0  0  0  0
    7.4111   -3.7794   -0.5991 H   0  0  0  0  0  0  0  0  0  0  0  0
   12.3907   -5.6089   -0.7274 H   0  0  0  0  0  0  0  0  0  0  0  0
   11.3035   -6.0557    0.5772 H   0  0  0  0  0  0  0  0  0  0  0  0
   12.8164   -5.1888    0.9218 H   0  0  0  0  0  0  0  0  0  0  0  0
   10.3446   -2.7495    1.8598 H   0  0  0  0  0  0  0  0  0  0  0  0
   12.0878   -3.0298    2.0306 H   0  0  0  0  0  0  0  0  0  0  0  0
   10.8958   -4.3095    2.2641 H   0  0  0  0  0  0  0  0  0  0  0  0
   11.0226   -3.2510   -1.9193 H   0  0  0  0  0  0  0  0  0  0  0  0
   13.1288   -4.3257   -2.1967 H   0  0  0  0  0  0  0  0  0  0  0  0
   12.9099   -2.7335   -2.8351 H   0  0  0  0  0  0  0  0  0  0  0  0
   14.8994   -2.2966   -1.9828 H   0  0  0  0  0  0  0  0  0  0  0  0
   14.8220   -3.6415   -0.8511 H   0  0  0  0  0  0  0  0  0  0  0  0
   16.0642   -2.2691    0.4133 H   0  0  0  0  0  0  0  0  0  0  0  0
   15.2166   -1.4198    1.6915 H   0  0  0  0  0  0  0  0  0  0  0  0
   15.7595   -0.5567    0.2103 H   0  0  0  0  0  0  0  0  0  0  0  0
   12.6563   -0.5558    0.9841 H   0  0  0  0  0  0  0  0  0  0  0  0
   11.6588   -0.9521   -1.5855 H   0  0  0  0  0  0  0  0  0  0  0  0
    9.3154    1.5209   -0.4149 H   0  0  0  0  0  0  0  0  0  0  0  0
  1  2  2  0  0  0  0
  1 27  1  0  0  0  0
  1 28  1  0  0  0  0
  2  3  1  0  0  0  0
  2 29  1  0  0  0  0
  3  4  1  0  0  0  0
  3 30  1  0  0  0  0
  3 31  1  0  0  0  0
  4  5  1  0  0  0  0
  4 32  1  0  0  0  0
  4 33  1  0  0  0  0
  5  6  1  0  0  0  0
  5 34  1  0  0  0  0
  5 35  1  0  0  0  0
  6  7  1  0  0  0  0
  6 23  2  0  0  0  0
  7  8  2  0  0  0  0
  7 36  1  0  0  0  0
  8  9  1  0  0  0  0
  8 20  1  0  0  0  0
  9 10  1  0  0  0  0
 10 13  1  0  0  0  0
 10 11  1  0  0  0  0
 10 12  1  0  0  0  0
 11 37  1  0  0  0  0
 11 38  1  0  0  0  0
 11 39  1  0  0  0  0
 12 40  1  0  0  0  0
 12 41  1  0  0  0  0
 12 42  1  0  0  0  0
 13 14  1  0  0  0  0
 13 19  1  0  0  0  0
 13 43  1  6  0  0  0
 14 15  1  0  0  0  0
 14 44  1  0  0  0  0
 14 45  1  0  0  0  0
 15 16  1  0  0  0  0
 15 46  1  0  0  0  0
 15 47  1  0  0  0  0
 16 18  2  0  0  0  0
 16 17  1  0  0  0  0
 17 48  1  0  0  0  0
 17 49  1  0  0  0  0
 17 50  1  0  0  0  0
 18 19  1  0  0  0  0
 18 51  1  0  0  0  0
 19 20  1  0  0  0  0
 19 52  1  0  0  0  0
 20 21  2  0  0  0  0
 21 23  1  0  0  0  0
 21 22  1  0  0  0  0
 22 53  1  0  0  0  0
 23 24  1  0  0  0  0
 24 25  2  0  0  0  0
 24 26  1  0  0  0  0
M  CHG  1  26  -1
M  END
$$$$
