
 OpenBabel06162213113D

 54 56  0  0  1  0  0  0  0  0999 V2000
    6.7308    0.9243    4.6990 C   0  0  0  0  0  0  0  0  0  0  0  0
    6.3322    0.7743    3.4667 C   0  0  0  0  0  0  0  0  0  0  0  0
    5.8675    0.5995    2.0301 C   0  0  0  0  0  0  0  0  0  0  0  0
    6.4774    1.6694    1.1219 C   0  0  0  0  0  0  0  0  0  0  0  0
    6.0278    1.5062   -0.3303 C   0  0  0  0  0  0  0  0  0  0  0  0
    6.6327    2.5631   -1.2875 C   0  0  0  0  0  0  0  0  0  0  0  0
    8.1582    2.5905   -1.3991 C   0  0  0  0  0  0  0  0  0  0  0  0
    8.8500    3.4387   -0.4985 C   0  0  0  0  0  0  0  0  0  0  0  0
   10.2452    3.5233   -0.5583 C   0  0  0  0  0  0  0  0  0  0  0  0
   10.7152    4.4619    0.4667 O   0  0  0  0  0  0  0  0  0  0  0  0
   11.9786    4.8717   -0.0610 C   0  0  0  0  0  0  0  0  0  0  0  0
   12.9216    6.0066    0.5061 C   0  0  0  0  0  0  0  0  0  0  0  0
   11.3499    5.7671   -1.2094 C   0  0  0  0  0  0  0  0  0  0  0  0
   12.6087    3.3410    0.0933 C   0  0  2  0  0  0  0  0  0  0  0  0
   13.7347    3.1409    1.0929 C   0  0  0  0  0  0  0  0  0  0  0  0
   15.1872    3.4015    0.9820 C   0  0  0  0  0  0  0  0  0  0  0  0
   15.5093    3.5430   -0.5218 C   0  0  0  0  0  0  0  0  0  0  0  0
   17.0033    3.9910   -0.4090 C   0  0  0  0  0  0  0  0  0  0  0  0
   14.4830    3.3665   -1.5104 C   0  0  0  0  0  0  0  0  0  0  0  0
   12.8479    2.7473   -1.2404 C   0  0  3  0  0  0  0  0  0  0  0  0
   11.1641    2.8652   -1.5563 C   0  0  0  0  0  0  0  0  0  0  0  0
   10.4189    1.9845   -2.3892 C   0  0  0  0  0  0  0  0  0  0  0  0
   11.0919    1.1987   -3.3005 O   0  0  0  0  0  0  0  0  0  0  0  0
    8.9367    1.8228   -2.3209 C   0  0  0  0  0  0  0  0  0  0  0  0
    8.1537    0.7367   -3.1569 C   0  0  0  0  0  0  0  0  0  0  0  0
    8.7060    0.3849   -4.2525 O   0  0  0  0  0  0  0  0  0  0  0  0
    7.0783    0.3340   -2.7620 O   0  5  0  0  0  0  0  0  0  0  0  0
    7.0559    1.0528    5.7049 H   0  0  0  0  0  0  0  0  0  0  0  0
    4.7735    0.6583    2.0040 H   0  0  0  0  0  0  0  0  0  0  0  0
    6.1565   -0.4005    1.6873 H   0  0  0  0  0  0  0  0  0  0  0  0
    7.5688    1.5981    1.1791 H   0  0  0  0  0  0  0  0  0  0  0  0
    6.1977    2.6681    1.4816 H   0  0  0  0  0  0  0  0  0  0  0  0
    4.9307    1.5665   -0.3746 H   0  0  0  0  0  0  0  0  0  0  0  0
    6.2779    0.4911   -0.6491 H   0  0  0  0  0  0  0  0  0  0  0  0
    6.2648    3.5491   -0.9696 H   0  0  0  0  0  0  0  0  0  0  0  0
    6.1858    2.4572   -2.2863 H   0  0  0  0  0  0  0  0  0  0  0  0
    8.3023    3.9839    0.2430 H   0  0  0  0  0  0  0  0  0  0  0  0
   13.7925    5.7567    1.1139 H   0  0  0  0  0  0  0  0  0  0  0  0
   12.4072    6.7806    1.0687 H   0  0  0  0  0  0  0  0  0  0  0  0
   13.4251    6.4662   -0.3695 H   0  0  0  0  0  0  0  0  0  0  0  0
   10.3404    5.5316   -1.5673 H   0  0  0  0  0  0  0  0  0  0  0  0
   12.0032    5.9259   -2.0724 H   0  0  0  0  0  0  0  0  0  0  0  0
   11.1241    6.7586   -0.7635 H   0  0  0  0  0  0  0  0  0  0  0  0
   11.8990    2.6828    0.6390 H   0  0  0  0  0  0  0  0  0  0  0  0
   13.8213    4.1157    0.6969 H   0  0  0  0  0  0  0  0  0  0  0  0
   13.8678    2.0873    0.8214 H   0  0  0  0  0  0  0  0  0  0  0  0
   15.7757    2.6607    1.5334 H   0  0  0  0  0  0  0  0  0  0  0  0
   15.4052    4.3598    1.5137 H   0  0  0  0  0  0  0  0  0  0  0  0
   17.2182    4.3195    0.6440 H   0  0  0  0  0  0  0  0  0  0  0  0
   17.2994    4.8887   -0.9513 H   0  0  0  0  0  0  0  0  0  0  0  0
   17.7333    3.1718   -0.4884 H   0  0  0  0  0  0  0  0  0  0  0  0
   14.7568    3.4809   -2.5564 H   0  0  0  0  0  0  0  0  0  0  0  0
   13.0157    1.6596   -1.2273 H   0  0  0  0  0  0  0  0  0  0  0  0
   11.8287    0.7727   -2.8605 H   0  0  0  0  0  0  0  0  0  0  0  0
  1  2  3  0  0  0  0
  1 28  1  0  0  0  0
  2  3  1  0  0  0  0
  3  4  1  0  0  0  0
  3 29  1  0  0  0  0
  3 30  1  0  0  0  0
  4  5  1  0  0  0  0
  4 31  1  0  0  0  0
  4 32  1  0  0  0  0
  5  6  1  0  0  0  0
  5 33  1  0  0  0  0
  5 34  1  0  0  0  0
  6  7  1  0  0  0  0
  6 35  1  0  0  0  0
  6 36  1  0  0  0  0
  7  8  1  0  0  0  0
  7 24  2  0  0  0  0
  8  9  2  0  0  0  0
  8 37  1  0  0  0  0
  9 10  1  0  0  0  0
  9 21  1  0  0  0  0
 10 11  1  0  0  0  0
 11 14  1  0  0  0  0
 11 12  1  0  0  0  0
 11 13  1  0  0  0  0
 12 38  1  0  0  0  0
 12 39  1  0  0  0  0
 12 40  1  0  0  0  0
 13 41  1  0  0  0  0
 13 42  1  0  0  0  0
 13 43  1  0  0  0  0
 14 15  1  0  0  0  0
 14 20  1  0  0  0  0
 14 44  1  1  0  0  0
 15 16  1  0  0  0  0
 15 45  1  0  0  0  0
 15 46  1  0  0  0  0
 16 17  1  0  0  0  0
 16 47  1  0  0  0  0
 16 48  1  0  0  0  0
 17 19  2  0  0  0  0
 17 18  1  0  0  0  0
 18 49  1  0  0  0  0
 18 50  1  0  0  0  0
 18 51  1  0  0  0  0
 19 20  1  0  0  0  0
 19 52  1  0  0  0  0
 20 21  1  0  0  0  0
 20 53  1  0  0  0  0
 21 22  2  0  0  0  0
 22 24  1  0  0  0  0
 22 23  1  0  0  0  0
 23 54  1  0  0  0  0
 24 25  1  0  0  0  0
 25 26  2  0  0  0  0
 25 27  1  0  0  0  0
M  CHG  1  27  -1
M  END
$$$$
